Circuit: * Z:\home\saiashok\Desktop\feedback_systems\spice\ee18btech11044\ee18btech11044_3.asc

Direct Newton iteration for .op point succeeded.

Date: Wed May 27 13:05:37 2020
Total elapsed time: 0.042 seconds.

tnom = 27
temp = 27
method = modified trap
totiter = 2172
traniter = 2162
tranpoints = 1081
accept = 1071
rejected = 10
matrix size = 38
fillins = 48
solver = Normal
Matrix Compiler1:     239 opcodes  1.1/[0.8]/0.9
Matrix Compiler2: off  [0.7]/1.1/1.0

