Circuit: * Z:\home\saiashok\Desktop\gvv_feedback\gvv_try.asc

Direct Newton iteration for .op point succeeded.

Date: Tue May 12 01:46:56 2020
Total elapsed time: 0.235 seconds.

tnom = 27
temp = 27
method = modified trap
totiter = 53328
traniter = 53318
tranpoints = 16594
accept = 11300
rejected = 5294
matrix size = 38
fillins = 48
solver = Normal
Matrix Compiler1: 4.24 KB object code size  2.3/1.6/[1.2]
Matrix Compiler2: 3.90 KB object code size  1.4/1.5/[1.2]

