Circuit: * C:\Users\varsh\OneDrive\Desktop\Spice64\bin\es17btech11009.asc

Direct Newton iteration for .op point succeeded.

Date: Tue May 26 12:56:56 2020
Total elapsed time: 0.314 seconds.

tnom = 27
temp = 27
method = modified trap
totiter = 41101
traniter = 41090
tranpoints = 13354
accept = 9429
rejected = 3925
matrix size = 69
fillins = 90
solver = Normal
Matrix Compiler1: 7.88 KB object code size  1.4/1.2/[0.4]
Matrix Compiler2: 7.37 KB object code size  0.6/1.3/[0.4]

