Circuit: * C:\Users\varsh\OneDrive\Desktop\es17btech11009\spice\es17btech11009.asc

Direct Newton iteration for .op point succeeded.

Date: Fri May 15 18:15:02 2020
Total elapsed time: 0.756 seconds.

tnom = 27
temp = 27
method = modified trap
totiter = 90912
traniter = 90901
tranpoints = 26996
accept = 23339
rejected = 3657
matrix size = 39
fillins = 45
solver = Normal
Matrix Compiler1: 4.09 KB object code size  1.8/1.0/[0.5]
Matrix Compiler2: 3.93 KB object code size  0.7/0.9/[0.6]

